/*--------------------------------*- C++ -*----------------------------------*\
  =========                 |
  \\      /  F ield         | OpenFOAM: The Open Source CFD Toolbox
   \\    /   O peration     | Website:  https://openfoam.org
    \\  /    A nd           | Version:  7
     \\/     M anipulation  |
\*---------------------------------------------------------------------------*/
FoamFile
{
    version     2.0;
    format      ascii;
    class       dictionary;
    location    "system";
    object      controlDict;
}
// * * * * * * * * * * * * * * * * * * * * * * * * * * * * * * * * * * * * * //

application     dfLowMachFoam;

startFrom       latestTime;

startTime       0;

stopAt          endTime;

endTime         1.6e-4;

deltaT          5e-8;

writeControl    adjustableRunTime;

writeInterval   2e-5;

purgeWrite      0;

writeFormat     ascii;

// writePrecision    6;

writeCompression on;

timeFormat      general;

timePrecision   6;

runTimeModifiable true;

adjustTimeStep yes;

maxCo  0.4;

maxDeltaT 1e-4;

OptimisationSwitches
{
    fileHandler collated;
    maxThreadFileBufferSize 0;//1e9; // v1712 default is 0;
}

// ************************************************************************* //
