/*--------------------------------*- C++ -*----------------------------------*\
  =========                 |
  \\      /  F ield         | OpenFOAM: The Open Source CFD Toolbox
   \\    /   O peration     | Website:  https://openfoam.org
    \\  /    A nd           | Version:  7
     \\/     M anipulation  |
\*---------------------------------------------------------------------------*/
FoamFile
{
    version     2.0;
    format      ascii;
    class       dictionary;
    location    "system";
    object      setFieldsDict;
}
// * * * * * * * * * * * * * * * * * * * * * * * * * * * * * * * * * * * * * //
/*
defaultFieldValues
(
    volScalarFieldValue T 600
);*/

regions
(
    cylinderToCell
    {
        p1 (0.003141592653 0.003141592653 0);
		p2 (0.003141592653 0.003141592653 0.006283185307);
		radius 0.00062831853;
        fieldValues
        (
            volScalarFieldValue T 1500
        );
    }
);


// ************************************************************************* //
